Version 4
SHEET 1 880 680
WIRE 224 -64 176 -64
WIRE 224 -32 176 -32
WIRE 224 0 176 0
WIRE 224 32 176 32
WIRE 48 48 -64 48
WIRE 224 64 176 64
WIRE 224 96 176 96
WIRE -64 128 -64 48
WIRE 224 128 176 128
WIRE -128 144 -160 144
WIRE 224 160 176 160
WIRE 80 208 80 192
WIRE 80 208 48 208
WIRE 112 240 112 192
WIRE 112 240 48 240
WIRE -96 256 -96 192
WIRE 144 272 144 192
WIRE 144 272 48 272
WIRE 80 288 80 208
WIRE 112 288 112 240
WIRE 144 288 144 272
WIRE 224 320 176 320
WIRE 224 352 176 352
WIRE 224 384 176 384
WIRE 224 416 176 416
WIRE -64 432 -64 160
WIRE 48 432 -64 432
WIRE 224 448 176 448
WIRE 224 480 176 480
WIRE 224 512 176 512
WIRE 224 544 176 544
FLAG -160 144 D
IOPIN -160 144 In
FLAG -96 256 S3
IOPIN -96 256 In
FLAG 48 240 S1
IOPIN 48 240 In
FLAG 224 -64 Y0
IOPIN 224 -64 Out
FLAG 224 -32 Y1
IOPIN 224 -32 Out
FLAG 224 32 Y3
IOPIN 224 32 Out
FLAG 224 0 Y2
IOPIN 224 0 Out
FLAG 48 272 S2
IOPIN 48 272 In
FLAG 224 160 Y7
IOPIN 224 160 Out
FLAG 224 128 Y6
IOPIN 224 128 Out
FLAG 224 64 Y4
IOPIN 224 64 Out
FLAG 224 96 Y5
IOPIN 224 96 Out
FLAG 48 208 S0
IOPIN 48 208 In
FLAG 224 320 Y15
IOPIN 224 320 Out
FLAG 224 352 Y14
IOPIN 224 352 Out
FLAG 224 416 Y12
IOPIN 224 416 Out
FLAG 224 384 Y13
IOPIN 224 384 Out
FLAG 224 544 Y8
IOPIN 224 544 Out
FLAG 224 512 Y9
IOPIN 224 512 Out
FLAG 224 448 Y11
IOPIN 224 448 Out
FLAG 224 480 Y10
IOPIN 224 480 Out
SYMBOL 2OutputDeMux -96 144 M0
SYMATTR InstName X3
SYMBOL 8OutputDeMux 160 -80 M0
SYMATTR InstName X1
SYMBOL 8OutputDeMux 160 560 R180
SYMATTR InstName X2
