Version 4
SHEET 1 880 680
WIRE -128 80 -128 32
WIRE 112 80 -16 80
WIRE 304 96 240 96
WIRE 112 160 112 112
WIRE 112 160 80 160
WIRE 112 208 112 160
WIRE 304 224 240 224
WIRE -128 240 -128 80
WIRE 112 240 -128 240
FLAG -128 32 S
IOPIN -128 32 In
FLAG 304 96 Y0
IOPIN 304 96 Out
FLAG 304 224 Y1
IOPIN 304 224 Out
FLAG 80 160 D
IOPIN 80 160 In
SYMBOL AND 176 96 R0
SYMATTR InstName X2
SYMBOL AND 176 224 R0
SYMATTR InstName X3
SYMBOL Inverter -80 80 R0
SYMATTR InstName X4
