Version 4
SHEET 1 880 680
WIRE 176 32 112 32
WIRE 48 48 -64 48
WIRE 176 64 112 64
WIRE -64 128 -64 48
WIRE -128 144 -160 144
WIRE 80 144 80 96
WIRE 80 144 48 144
WIRE 80 192 80 144
WIRE 176 224 112 224
WIRE -64 240 -64 160
WIRE 48 240 -64 240
WIRE -96 256 -96 192
WIRE 176 256 112 256
FLAG -160 144 D
IOPIN -160 144 In
FLAG -96 256 S0
IOPIN -96 256 In
FLAG 48 144 S1
IOPIN 48 144 In
FLAG 176 32 Y0
IOPIN 176 32 Out
FLAG 176 64 Y1
IOPIN 176 64 Out
FLAG 176 224 Y3
IOPIN 176 224 Out
FLAG 176 256 Y2
IOPIN 176 256 Out
SYMBOL 2OutputDeMux 80 48 M0
SYMATTR InstName X1
SYMBOL 2OutputDeMux 80 240 R180
SYMATTR InstName X2
SYMBOL 2OutputDeMux -96 144 M0
SYMATTR InstName X3
