Version 4
SHEET 1 880 680
WIRE 192 0 144 0
WIRE 192 32 144 32
WIRE 48 48 -64 48
WIRE 192 64 144 64
WIRE 192 96 144 96
WIRE -64 128 -64 48
WIRE -128 144 -160 144
WIRE 80 144 80 128
WIRE 80 144 48 144
WIRE 112 176 112 128
WIRE 112 176 48 176
WIRE 80 192 80 144
WIRE 112 192 112 176
WIRE 192 224 144 224
WIRE -96 256 -96 192
WIRE 192 256 144 256
WIRE -64 272 -64 160
WIRE 48 272 -64 272
WIRE 192 288 144 288
WIRE 192 320 144 320
FLAG -160 144 D
IOPIN -160 144 In
FLAG -96 256 S0
IOPIN -96 256 In
FLAG 48 144 S2
IOPIN 48 144 In
FLAG 192 0 Y0
IOPIN 192 0 Out
FLAG 192 32 Y1
IOPIN 192 32 Out
FLAG 192 96 Y3
IOPIN 192 96 Out
FLAG 192 64 Y2
IOPIN 192 64 Out
FLAG 48 176 S1
IOPIN 48 176 In
FLAG 192 224 Y7
IOPIN 192 224 Out
FLAG 192 256 Y6
IOPIN 192 256 Out
FLAG 192 320 Y4
IOPIN 192 320 Out
FLAG 192 288 Y5
IOPIN 192 288 Out
SYMBOL 2OutputDeMux -96 144 M0
SYMATTR InstName X3
SYMBOL 4OutputDeMux 128 48 M0
SYMATTR InstName X1
SYMBOL 4OutputDeMux 128 272 R180
SYMATTR InstName X2
