Version 4
SHEET 1 880 680
WIRE -32 112 -112 112
WIRE 176 112 80 112
WIRE 176 144 176 112
WIRE 384 160 304 160
WIRE -32 208 -112 208
WIRE 176 208 176 176
WIRE 176 208 80 208
FLAG 384 160 OUT
IOPIN 384 160 Out
FLAG -112 112 IN1
IOPIN -112 112 In
FLAG -112 208 IN2
IOPIN -112 208 In
SYMBOL NAND 240 160 R0
SYMATTR InstName X1
SYMBOL Inverter 16 112 R0
SYMATTR InstName X2
SYMBOL Inverter 16 208 R0
SYMATTR InstName X3
