Version 4
SHEET 1 1572 680
WIRE -2256 -2832 -2272 -2832
WIRE -2064 -2832 -2176 -2832
WIRE -1824 -2832 -1952 -2832
WIRE -2064 -2768 -2144 -2768
WIRE -1824 -2752 -1936 -2752
WIRE -2064 -2736 -2128 -2736
WIRE -2256 -2720 -2256 -2832
WIRE -2144 -2720 -2144 -2768
WIRE -2144 -2720 -2176 -2720
WIRE -2144 -2688 -2144 -2720
WIRE -2064 -2688 -2144 -2688
WIRE -1824 -2672 -1936 -2672
WIRE -2128 -2656 -2128 -2736
WIRE -2064 -2656 -2128 -2656
WIRE -2256 -2608 -2256 -2720
WIRE -2224 -2608 -2256 -2608
WIRE -2144 -2608 -2144 -2688
WIRE -2064 -2608 -2144 -2608
WIRE -1824 -2592 -1936 -2592
WIRE -2176 -2576 -2176 -2608
WIRE -2128 -2576 -2128 -2656
WIRE -2128 -2576 -2176 -2576
WIRE -2064 -2576 -2128 -2576
WIRE -1792 -2224 -1856 -2224
WIRE -1792 -2192 -1856 -2192
WIRE -1488 -2160 -1888 -2160
WIRE -1920 -2032 -1920 -2208
WIRE -1904 -2032 -1920 -2032
WIRE -1488 -1952 -1488 -2160
WIRE -1488 -1952 -1856 -1952
WIRE -1888 -1936 -1888 -1952
WIRE -1424 -1936 -1888 -1936
WIRE -1920 -1872 -1920 -2032
WIRE -1920 -1872 -2080 -1872
WIRE -1920 -1760 -1920 -1872
WIRE -1488 -1616 -1488 -1952
WIRE -1488 -1616 -1824 -1616
WIRE -1856 -1600 -1856 -1616
WIRE -1424 -1600 -1424 -1936
WIRE -1424 -1600 -1856 -1600
WIRE -1888 -1584 -1888 -1616
WIRE -1360 -1584 -1888 -1584
WIRE -1888 -1504 -1888 -1552
WIRE -1856 -1504 -1856 -1552
WIRE -1824 -1504 -1824 -1552
WIRE -1792 -1504 -1792 -1552
WIRE -1760 -1504 -1760 -1552
WIRE -1728 -1504 -1728 -1552
WIRE -1696 -1504 -1696 -1552
WIRE -1664 -1504 -1664 -1552
WIRE -1792 -1488 -1792 -1504
WIRE -1488 -1472 -1488 -1616
WIRE -1488 -1472 -1632 -1472
WIRE -1424 -1440 -1424 -1600
WIRE -1424 -1440 -1632 -1440
WIRE -1920 -1424 -1920 -1760
WIRE -1360 -1408 -1360 -1584
WIRE -1360 -1408 -1632 -1408
WIRE -1296 -1376 -1632 -1376
WIRE -1488 -1344 -1488 -1472
WIRE -1424 -1344 -1424 -1440
WIRE -1360 -1344 -1360 -1408
WIRE -1296 -1344 -1296 -1376
WIRE -1424 -1264 -1488 -1264
WIRE -1392 -1264 -1424 -1264
WIRE -1360 -1264 -1392 -1264
WIRE -1296 -1264 -1360 -1264
WIRE -1760 -1248 -1760 -1344
WIRE -1728 -1248 -1728 -1344
WIRE -1696 -1248 -1696 -1344
WIRE -1888 -1232 -1888 -1344
WIRE -1856 -1232 -1856 -1344
WIRE -1792 -1232 -1792 -1344
WIRE -1664 -1232 -1664 -1344
WIRE -1392 -1232 -1392 -1264
WIRE -1824 -1216 -1824 -1344
FLAG -2272 -2832 0
FLAG -1824 -2832 Not
FLAG -1824 -2752 NAND
FLAG -1824 -2672 AND
FLAG -1824 -2592 OR
FLAG -2080 -1792 0
FLAG -1392 -1232 0
SYMBOL NAND -2000 -2752 R0
SYMATTR InstName X8
SYMBOL Inverter -2016 -2832 R0
SYMATTR InstName X10
SYMBOL AND -2000 -2672 R0
SYMATTR InstName X11
SYMBOL OR -2016 -2592 R0
SYMATTR InstName X12
SYMBOL voltage -2160 -2832 R90
WINDOW 0 -32 56 VBottom 2
WINDOW 3 32 56 VTop 2
WINDOW 123 0 0 Left 0
WINDOW 39 0 0 Left 0
SYMATTR InstName V_Logic_0
SYMATTR Value 0
SYMBOL voltage -2160 -2720 R90
WINDOW 0 -32 56 VBottom 2
WINDOW 3 32 56 VTop 2
WINDOW 123 0 0 Left 0
WINDOW 39 0 0 Left 0
SYMATTR InstName V_Logic_1
SYMATTR Value 0
SYMBOL voltage -2160 -2608 R90
WINDOW 0 -32 56 VBottom 2
WINDOW 3 32 56 VTop 2
WINDOW 123 0 0 Left 0
WINDOW 39 0 0 Left 0
SYMATTR InstName V_Logic_2
SYMATTR Value 5
SYMBOL 2OutputDeMux -1888 -2208 M0
SYMATTR InstName X9
SYMBOL 4OutputDeMux -1840 -2032 M0
SYMATTR InstName X7
SYMBOL 8OutputDeMux -1808 -1888 M0
SYMATTR InstName X15
SYMBOL 16OutputDeMux -1648 -1424 M0
SYMATTR InstName X16
SYMBOL voltage -2080 -1888 R0
WINDOW 123 0 0 Left 0
WINDOW 39 0 0 Left 0
SYMATTR InstName V1
SYMATTR Value 5
SYMBOL voltage -1488 -1360 R0
WINDOW 123 0 0 Left 0
WINDOW 39 0 0 Left 0
SYMATTR InstName V2
SYMATTR Value 5
SYMBOL voltage -1424 -1360 R0
WINDOW 123 0 0 Left 0
WINDOW 39 0 0 Left 0
SYMATTR InstName V3
SYMATTR Value 0
SYMBOL voltage -1360 -1360 R0
WINDOW 123 0 0 Left 0
WINDOW 39 0 0 Left 0
SYMATTR InstName V4
SYMATTR Value 5
SYMBOL voltage -1296 -1360 R0
WINDOW 123 0 0 Left 0
WINDOW 39 0 0 Left 0
SYMATTR InstName V5
SYMATTR Value 0
TEXT -2072 -2936 Left 2 ;Logic Gate Test
TEXT -2256 -2448 Left 2 !.include C5_models_LTSPICE.txt
TEXT -2256 -2416 Left 2 !.tran 0 1 1m
TEXT -2080 -2336 Left 2 ;Mux Test
